
**** 05/28/20 15:27:32 ******* PSpice Lite (March 2016) ******* ID# 10813 ****

 ** Profile: "SCHEMATIC1-lab3ed"  [ C:\Users\yoyol\Desktop\Facultate\lab3ed-PSpiceFiles\SCHEMATIC1\lab3ed.sim ] 


 ****     CIRCUIT DESCRIPTION


******************************************************************************




** Creating circuit file "lab3ed.cir" 
** WARNING: THIS AUTOMATICALLY GENERATED FILE MAY BE OVERWRITTEN BY SUBSEQUENT SIMULATIONS

*Libraries: 
* Profile Libraries :
* Local Libraries :
* From [PSPICE NETLIST] section of C:\Users\yoyol\AppData\Roaming\SPB_Data\cdssetup\OrCAD_PSpice\17.2.0\PSpice.ini file:
.lib "nomd.lib" 

*Analysis directives: 
.TRAN  0 2000ns 0 1us 
.OPTIONS ADVCONV
.PROBE64 V(alias(*)) I(alias(*)) W(alias(*)) D(alias(*)) NOISE(alias(*)) 
.INC "..\SCHEMATIC1.net" 



**** INCLUDING SCHEMATIC1.net ****
* source LAB3ED
U_DSTM1         STIM(1,1) $G_DPWR $G_DGND B IO_STM IO_LEVEL=0 
+ 0 0
+ +.25uS 1
+REPEAT FOREVER
+ +.25uS 0
+  +.25uS 1
+ ENDREPEAT
U_DSTM2         STIM(1,1) $G_DPWR $G_DGND C IO_STM IO_LEVEL=0 
+ 0 0
+ +.125uS 1
+REPEAT FOREVER
+ +.125uS 0
+  +.125uS 1
+ ENDREPEAT
U_DSTM3         STIM(1,1) $G_DPWR $G_DGND A IO_STM IO_LEVEL=0 
+ 0 0
+ +.5uS 1
+REPEAT FOREVER
+ +.5uS 0
+  +.5uS 1
+ ENDREPEAT
X_U1A         C N00780 $G_DPWR $G_DGND 7404 PARAMS:
+ IO_LEVEL=0 MNTYMXDLY=0
X_U1B         A N00850 $G_DPWR $G_DGND 7404 PARAMS:
+ IO_LEVEL=0 MNTYMXDLY=0
X_U2A         N00850 B N00954 $G_DPWR $G_DGND 7408 PARAMS:
+ IO_LEVEL=0 MNTYMXDLY=0
X_U3A         N00954 N00780 F4 $G_DPWR $G_DGND 7432 PARAMS:
+ IO_LEVEL=0 MNTYMXDLY=0

**** RESUMING lab3ed.cir ****
.END

**** 05/28/20 15:27:32 ******* PSpice Lite (March 2016) ******* ID# 10813 ****

 ** Profile: "SCHEMATIC1-lab3ed"  [ C:\Users\yoyol\Desktop\Facultate\lab3ed-PSpiceFiles\SCHEMATIC1\lab3ed.sim ] 


 ****     Digital Gate MODEL PARAMETERS


******************************************************************************




               D_04            D_08            D_32            
      TPLHMN    4.800000E-09    7.000000E-09    4.000000E-09 
      TPLHTY   12.000000E-09   17.500000E-09   10.000000E-09 
      TPLHMX   22.000000E-09   27.000000E-09   15.000000E-09 
      TPHLMN    3.200000E-09    4.800000E-09    5.600000E-09 
      TPHLTY    8.000000E-09   12.000000E-09   14.000000E-09 
      TPHLMX   15.000000E-09   19.000000E-09   22.000000E-09 


**** 05/28/20 15:27:32 ******* PSpice Lite (March 2016) ******* ID# 10813 ****

 ** Profile: "SCHEMATIC1-lab3ed"  [ C:\Users\yoyol\Desktop\Facultate\lab3ed-PSpiceFiles\SCHEMATIC1\lab3ed.sim ] 


 ****     Digital IO  MODEL PARAMETERS


******************************************************************************




               IO_STM          IO_STD          
        DRVL    0             104            
        DRVH    0              96.4          
       AtoD1                 AtoD_STD        
       AtoD2                 AtoD_STD_NX     
       AtoD3                 AtoD_STD        
       AtoD4                 AtoD_STD_NX     
       DtoA1 DtoA_STM        DtoA_STD        
       DtoA2 DtoA_STM        DtoA_STD        
       DtoA3 DtoA_STM        DtoA_STD        
       DtoA4 DtoA_STM        DtoA_STD        
      TSWHL1                    1.511000E-09 
      TSWHL2                    1.487000E-09 
      TSWHL3                    1.511000E-09 
      TSWHL4                    1.487000E-09 
      TSWLH1                    3.517000E-09 
      TSWLH2                    3.564000E-09 
      TSWLH3                    3.517000E-09 
      TSWLH4                    3.564000E-09 
       TPWRT  100.000000E+03  100.000000E+03 



          JOB CONCLUDED

**** 05/28/20 15:27:32 ******* PSpice Lite (March 2016) ******* ID# 10813 ****

 ** Profile: "SCHEMATIC1-lab3ed"  [ C:\Users\yoyol\Desktop\Facultate\lab3ed-PSpiceFiles\SCHEMATIC1\lab3ed.sim ] 


 ****     JOB STATISTICS SUMMARY


******************************************************************************



  Total job time                    =         .03
