
**** 04/30/20 17:29:01 ******* PSpice Lite (March 2016) ******* ID# 10813 ****

 ** Profile: "SCHEMATIC1-ftj"  [ C:\Users\yoyol\Desktop\Facultate\Lab9-PSpiceFiles\SCHEMATIC1\ftj.sim ] 


 ****     CIRCUIT DESCRIPTION


******************************************************************************




** Creating circuit file "ftj.cir" 
** WARNING: THIS AUTOMATICALLY GENERATED FILE MAY BE OVERWRITTEN BY SUBSEQUENT SIMULATIONS

*Libraries: 
* Profile Libraries :
* Local Libraries :
* From [PSPICE NETLIST] section of C:\Users\yoyol\AppData\Roaming\SPB_Data\cdssetup\OrCAD_PSpice\17.2.0\PSpice.ini file:
.lib "nomd.lib" 

*Analysis directives: 
.TRAN  0 5ms 0 10us 
.OPTIONS ADVCONV
.PROBE64 V(alias(*)) I(alias(*)) W(alias(*)) D(alias(*)) NOISE(alias(*)) 
.INC "..\SCHEMATIC1.net" 



**** INCLUDING SCHEMATIC1.net ****
* source LAB9
E_U1         OUT 0 VALUE {LIMIT(V(N00189,N00683)*1E6,-15V,+15V)}
R_R1         IN N00189  15.8k TC=0,0 
R_R2         IN N00683  10k TC=0,0 
R_R3         N00683 OUT  10k TC=0,0 
C_C1         0 N00189  10n  TC=0,0 
V_V1         IN 0  AC 1
+SIN 0 1 1k 0 0 0

**** RESUMING ftj.cir ****
.END

**** 04/30/20 17:29:01 ******* PSpice Lite (March 2016) ******* ID# 10813 ****

 ** Profile: "SCHEMATIC1-ftj"  [ C:\Users\yoyol\Desktop\Facultate\Lab9-PSpiceFiles\SCHEMATIC1\ftj.sim ] 


 ****     INITIAL TRANSIENT SOLUTION       TEMPERATURE =   27.000 DEG C


******************************************************************************



 NODE   VOLTAGE     NODE   VOLTAGE     NODE   VOLTAGE     NODE   VOLTAGE


(   IN)    0.0000  (  OUT)    0.0000  (N00189)    0.0000 (N00683)    0.0000 




    VOLTAGE SOURCE CURRENTS
    NAME         CURRENT

    V_V1         0.000E+00

    TOTAL POWER DISSIPATION   0.00E+00  WATTS



          JOB CONCLUDED

**** 04/30/20 17:29:01 ******* PSpice Lite (March 2016) ******* ID# 10813 ****

 ** Profile: "SCHEMATIC1-ftj"  [ C:\Users\yoyol\Desktop\Facultate\Lab9-PSpiceFiles\SCHEMATIC1\ftj.sim ] 


 ****     JOB STATISTICS SUMMARY


******************************************************************************



  Total job time (using Solver 1)   =         .02
