
**** 04/07/20 14:23:26 ******* PSpice Lite (March 2016) ******* ID# 10813 ****

 ** Profile: "SCHEMATIC1-proiect"  [ c:\users\yoyol\desktop\facultate\proiect\proiect-pspicefiles\schematic1\proiect.sim ] 


 ****     CIRCUIT DESCRIPTION


******************************************************************************




** Creating circuit file "proiect.cir" 
** WARNING: THIS AUTOMATICALLY GENERATED FILE MAY BE OVERWRITTEN BY SUBSEQUENT SIMULATIONS

*Libraries: 
* Profile Libraries :
* Local Libraries :
* From [PSPICE NETLIST] section of C:\Users\yoyol\AppData\Roaming\SPB_Data\cdssetup\OrCAD_PSpice\17.2.0\PSpice.ini file:
.lib "nomd.lib" 

*Analysis directives: 
.AC DEC 10 1 10Meg
.OPTIONS ADVCONV
.PROBE64 V(alias(*)) I(alias(*)) W(alias(*)) D(alias(*)) NOISE(alias(*)) 
.INC "..\SCHEMATIC1.net" 



**** INCLUDING SCHEMATIC1.net ****
* source PROIECT
X_U1A         N04583 N03169 V+ V- UIESMIX TL082
V_V1         V+ 0 12V
V_V2         0 V- 12V
R_RL-3         0 UIESMIX  10k TC=0,0 
R_R5-3         0 N04583  2.4k TC=0,0 
R_R1-3         UIN N03169  10k TC=0,0 
R_R2-3         UIN N03169  10k TC=0,0 
R_R3-3         UIN N03169  10k TC=0,0 
R_R4-3         N03169 UIESMIX  10k TC=0,0 
V_V3         UIN 0 DC 0Vdc AC 0.1V 

**** RESUMING proiect.cir ****
.END

**** 04/07/20 14:23:26 ******* PSpice Lite (March 2016) ******* ID# 10813 ****

 ** Profile: "SCHEMATIC1-proiect"  [ c:\users\yoyol\desktop\facultate\proiect\proiect-pspicefiles\schematic1\proiect.sim ] 


 ****     Diode MODEL PARAMETERS


******************************************************************************




               X_U1A.dx        X_U1A.dy        
          IS  800.000000E-18  800.000000E-18 
          RS                    1.000000E-03 
         CJO                   10.000000E-12 


**** 04/07/20 14:23:26 ******* PSpice Lite (March 2016) ******* ID# 10813 ****

 ** Profile: "SCHEMATIC1-proiect"  [ c:\users\yoyol\desktop\facultate\proiect\proiect-pspicefiles\schematic1\proiect.sim ] 


 ****     Junction FET MODEL PARAMETERS


******************************************************************************




               X_U1A.jx1       X_U1A.jx2       
               NJF             NJF             
         VTO   -1              -1            
        BETA  222.070000E-06  222.070000E-06 
          IS  100.000000E-12  100.000000E-12 


**** 04/07/20 14:23:26 ******* PSpice Lite (March 2016) ******* ID# 10813 ****

 ** Profile: "SCHEMATIC1-proiect"  [ c:\users\yoyol\desktop\facultate\proiect\proiect-pspicefiles\schematic1\proiect.sim ] 


 ****     SMALL SIGNAL BIAS SOLUTION       TEMPERATURE =   27.000 DEG C


******************************************************************************



 NODE   VOLTAGE     NODE   VOLTAGE     NODE   VOLTAGE     NODE   VOLTAGE


(   V+)   12.0000  (   V-)  -12.0000  (  UIN)    0.0000  (N03169)-13.62E-06     

(N04583) 508.7E-09 (UIESMIX)-56.61E-06                   (X_U1A.6) 5.405E-09    

(X_U1A.7)-57.11E-06                   (X_U1A.8)-57.11E-06                       

(X_U1A.9)    0.0000                   (X_U1A.10)     .3992                      

(X_U1A.11)   11.5750                  (X_U1A.12)   11.5750                      

(X_U1A.53)    9.6842                  (X_U1A.54)   -9.6842                      

(X_U1A.90)-9.960E-06                  (X_U1A.91)   40.0000                      

(X_U1A.92)  -40.0000                  (X_U1A.99)    0.0000                  




    VOLTAGE SOURCE CURRENTS
    NAME         CURRENT

    V_V1        -1.829E-02
    V_V2        -1.829E-02
    V_V3        -4.087E-09
    X_U1A.vb     5.405E-14
    X_U1A.vc     9.685E-12
    X_U1A.ve     1.101E-11
    X_U1A.vlim  -9.960E-09
    X_U1A.vlp   -4.000E-11
    X_U1A.vln   -4.000E-11

    TOTAL POWER DISSIPATION   4.39E-01  WATTS



          JOB CONCLUDED

**** 04/07/20 14:23:26 ******* PSpice Lite (March 2016) ******* ID# 10813 ****

 ** Profile: "SCHEMATIC1-proiect"  [ c:\users\yoyol\desktop\facultate\proiect\proiect-pspicefiles\schematic1\proiect.sim ] 


 ****     JOB STATISTICS SUMMARY


******************************************************************************



  Total job time (using Solver 1)   =         .06
