
**** 05/14/20 19:38:43 ******* PSpice Lite (March 2016) ******* ID# 10813 ****

 ** Profile: "SCHEMATIC1-labEd"  [ C:\Users\yoyol\Desktop\Facultate\labED12-PSpiceFiles\SCHEMATIC1\labEd.sim ] 


 ****     CIRCUIT DESCRIPTION


******************************************************************************




** Creating circuit file "labEd.cir" 
** WARNING: THIS AUTOMATICALLY GENERATED FILE MAY BE OVERWRITTEN BY SUBSEQUENT SIMULATIONS

*Libraries: 
* Profile Libraries :
* Local Libraries :
* From [PSPICE NETLIST] section of C:\Users\yoyol\AppData\Roaming\SPB_Data\cdssetup\OrCAD_PSpice\17.2.0\PSpice.ini file:
.lib "nomd.lib" 

*Analysis directives: 
.TRAN  0 1200ns 0 
.OPTIONS ADVCONV
.PROBE64 V(alias(*)) I(alias(*)) W(alias(*)) D(alias(*)) NOISE(alias(*)) 
.INC "..\SCHEMATIC1.net" 



**** INCLUDING SCHEMATIC1.net ****
* source LABED12
X_U1A         N00272 C ANC $G_DPWR $G_DGND 7408 PARAMS:
+ IO_LEVEL=0 MNTYMXDLY=0
X_U1B         B C BC $G_DPWR $G_DGND 7408 PARAMS:
+ IO_LEVEL=0 MNTYMXDLY=0
X_U1C         N00443 N00455 N00567 $G_DPWR $G_DGND 7408 PARAMS:
+ IO_LEVEL=0 MNTYMXDLY=0
X_U1D         N00567 N00276 ABNCN $G_DPWR $G_DGND 7408 PARAMS:
+ IO_LEVEL=0 MNTYMXDLY=0
X_U2A         N00276 N00272 $G_DPWR $G_DGND 7404 PARAMS:
+ IO_LEVEL=0 MNTYMXDLY=0
X_U2B         B N00443 $G_DPWR $G_DGND 7404 PARAMS:
+ IO_LEVEL=0 MNTYMXDLY=0
X_U2C         C N00455 $G_DPWR $G_DGND 7404 PARAMS:
+ IO_LEVEL=0 MNTYMXDLY=0
X_U3A         ANC BC N00757 $G_DPWR $G_DGND 7432 PARAMS:
+ IO_LEVEL=0 MNTYMXDLY=0
X_U3B         N00757 ABNCN F2 $G_DPWR $G_DGND 7432 PARAMS:
+ IO_LEVEL=0 MNTYMXDLY=0
U_DSTM2         STIM(1,1) $G_DPWR $G_DGND N00276 IO_STM IO_LEVEL=0 
+ 0 0
+ +500nS 1
+REPEAT FOREVER
+ +500nS 0
+  +500nS 1
+ ENDREPEAT
U_DSTM3         STIM(1,1) $G_DPWR $G_DGND B IO_STM IO_LEVEL=0 
+ 0 0
+ +250nS 1
+REPEAT FOREVER
+ +250nS 0
+  +250nS 1
+ ENDREPEAT
U_DSTM4         STIM(1,1) $G_DPWR $G_DGND C IO_STM IO_LEVEL=0 
+ 0 0
+ +125nS 1
+REPEAT FOREVER
+ +125nS 0
+  +125nS 1
+ ENDREPEAT

**** RESUMING labEd.cir ****
.END

**** 05/14/20 19:38:43 ******* PSpice Lite (March 2016) ******* ID# 10813 ****

 ** Profile: "SCHEMATIC1-labEd"  [ C:\Users\yoyol\Desktop\Facultate\labED12-PSpiceFiles\SCHEMATIC1\labEd.sim ] 


 ****     Digital Gate MODEL PARAMETERS


******************************************************************************




               D_08            D_04            D_32            
      TPLHMN    7.000000E-09    4.800000E-09    4.000000E-09 
      TPLHTY   17.500000E-09   12.000000E-09   10.000000E-09 
      TPLHMX   27.000000E-09   22.000000E-09   15.000000E-09 
      TPHLMN    4.800000E-09    3.200000E-09    5.600000E-09 
      TPHLTY   12.000000E-09    8.000000E-09   14.000000E-09 
      TPHLMX   19.000000E-09   15.000000E-09   22.000000E-09 


**** 05/14/20 19:38:43 ******* PSpice Lite (March 2016) ******* ID# 10813 ****

 ** Profile: "SCHEMATIC1-labEd"  [ C:\Users\yoyol\Desktop\Facultate\labED12-PSpiceFiles\SCHEMATIC1\labEd.sim ] 


 ****     Digital IO  MODEL PARAMETERS


******************************************************************************




               IO_STM          IO_STD          
        DRVL    0             104            
        DRVH    0              96.4          
       AtoD1                 AtoD_STD        
       AtoD2                 AtoD_STD_NX     
       AtoD3                 AtoD_STD        
       AtoD4                 AtoD_STD_NX     
       DtoA1 DtoA_STM        DtoA_STD        
       DtoA2 DtoA_STM        DtoA_STD        
       DtoA3 DtoA_STM        DtoA_STD        
       DtoA4 DtoA_STM        DtoA_STD        
      TSWHL1                    1.511000E-09 
      TSWHL2                    1.487000E-09 
      TSWHL3                    1.511000E-09 
      TSWHL4                    1.487000E-09 
      TSWLH1                    3.517000E-09 
      TSWLH2                    3.564000E-09 
      TSWLH3                    3.517000E-09 
      TSWLH4                    3.564000E-09 
       TPWRT  100.000000E+03  100.000000E+03 



          JOB CONCLUDED

**** 05/14/20 19:38:43 ******* PSpice Lite (March 2016) ******* ID# 10813 ****

 ** Profile: "SCHEMATIC1-labEd"  [ C:\Users\yoyol\Desktop\Facultate\labED12-PSpiceFiles\SCHEMATIC1\labEd.sim ] 


 ****     JOB STATISTICS SUMMARY


******************************************************************************



  Total job time                    =         .05
