
**** 03/16/20 15:27:54 ******* PSpice Lite (March 2016) ******* ID# 10813 ****

 ** Profile: "SCHEMATIC1-Laborator3"  [ C:\Users\yoyol\Desktop\Facultate\Laborator3-PSpiceFiles\SCHEMATIC1\Laborator3.sim ] 


 ****     CIRCUIT DESCRIPTION


******************************************************************************




** Creating circuit file "Laborator3.cir" 
** WARNING: THIS AUTOMATICALLY GENERATED FILE MAY BE OVERWRITTEN BY SUBSEQUENT SIMULATIONS

*Libraries: 
* Profile Libraries :
* Local Libraries :
* From [PSPICE NETLIST] section of C:\Users\yoyol\AppData\Roaming\SPB_Data\cdssetup\OrCAD_PSpice\17.2.0\PSpice.ini file:
.lib "nomd.lib" 

*Analysis directives: 
.AC DEC 10 1 100Meg
.OPTIONS ADVCONV
.PROBE64 V(alias(*)) I(alias(*)) W(alias(*)) D(alias(*)) NOISE(alias(*)) 
.INC "..\SCHEMATIC1.net" 



**** INCLUDING SCHEMATIC1.net ****
* source LABORATOR3
R_R1         IN V N  10k TC=0,0 
R_R2         V N OUT  100k TC=0,0 
R_R3         0 V P  10k TC=0,0 
R_R4         0 OUT  10k TC=0,0 
V_V3         IN 0 DC 0Vdc AC 1Vac 
V_V1         V+ 0 15V
V_V2         0 V- 15V
X_U1A         V P V N V+ V- OUT LM324

**** RESUMING Laborator3.cir ****
.END

WARNING(ORPSIM-15220): Error in opening Alias File : C:\Users\yoyol\Desktop\Facultate\Laborator3-PSpiceFiles\SCHEMATIC1\SCHEMATIC1.als
