
**** 04/09/20 16:36:51 ******* PSpice Lite (March 2016) ******* ID# 10813 ****

 ** Profile: "SCHEMATIC1-lab7-tema11"  [ c:\users\yoyol\desktop\facultate\laborator7-team11-PSpiceFiles\SCHEMATIC1\lab7-tema11.sim ] 


 ****     CIRCUIT DESCRIPTION


******************************************************************************




** Creating circuit file "lab7-tema11.cir" 
** WARNING: THIS AUTOMATICALLY GENERATED FILE MAY BE OVERWRITTEN BY SUBSEQUENT SIMULATIONS

*Libraries: 
* Profile Libraries :
* Local Libraries :
* From [PSPICE NETLIST] section of C:\Users\yoyol\AppData\Roaming\SPB_Data\cdssetup\OrCAD_PSpice\17.2.0\PSpice.ini file:
.lib "nomd.lib" 

*Analysis directives: 
.TRAN  0 2m 0 10u 
.OPTIONS ADVCONV
.PROBE64 V(alias(*)) I(alias(*)) W(alias(*)) D(alias(*)) NOISE(alias(*)) 
.INC "..\SCHEMATIC1.net" 



**** INCLUDING SCHEMATIC1.net ****
* source LABORATOR7-TEAM11
E_U1         VO 0 VALUE {LIMIT(V(VP,VN)*1E6,-15V,+15V)}
V_VCC         V+ 0 15V
V_VEE         0 V- 15V
R_R1         N01093 VN  10k TC=0,0 
R_R2         VN VO  10k TC=0,0 
R_R3         VCC VP  45k TC=0,0 
R_R4         0 VP  5k TC=0,0 
V_Vi         N01093 M_UN0001  
+SIN 0 0V 2kHz 0 0 0

**** RESUMING lab7-tema11.cir ****
.END

ERROR(ORPSIM-15141): Less than 2 connections at node VCC.
