
**** 03/18/20 11:38:29 ******* PSpice Lite (March 2016) ******* ID# 10813 ****

 ** Profile: "SCHEMATIC1-lab4-tc"  [ C:\Users\yoyol\Desktop\Facultate\lab4-tc-PSpiceFiles\SCHEMATIC1\lab4-tc.sim ] 


 ****     CIRCUIT DESCRIPTION


******************************************************************************




** Creating circuit file "lab4-tc.cir" 
** WARNING: THIS AUTOMATICALLY GENERATED FILE MAY BE OVERWRITTEN BY SUBSEQUENT SIMULATIONS

*Libraries: 
* Profile Libraries :
* Local Libraries :
* From [PSPICE NETLIST] section of C:\Users\yoyol\AppData\Roaming\SPB_Data\cdssetup\OrCAD_PSpice\17.2.0\PSpice.ini file:
.lib "nomd.lib" 

*Analysis directives: 
.DC LIN V_V3 -1 1 0.1m 
.OPTIONS ADVCONV
.PROBE64 V(alias(*)) I(alias(*)) W(alias(*)) D(alias(*)) NOISE(alias(*)) 
.INC "..\SCHEMATIC1.net" 



**** INCLUDING SCHEMATIC1.net ****
* source LAB4-TC
J_J1         OUT1 VIN N00204 BF245A 
J_J2         N00204 0 OUT2 BF245A 
R_R1         OUT1 V+  10k TC=0,0 
R_R2         OUT2 V+  10k TC=0,0 
I_I1         N00204 V- DC 1mA  
V_V1         V+ 0 15V
V_V2         0 V- 15V
V_V3         V+ 0 0Vdc

**** RESUMING lab4-tc.cir ****
.END

ERROR(ORPSIM-15141): Less than 2 connections at node VIN.

ERROR(ORPSIM-15143): Voltage source and/or inductor loop involving V_V3. You may break the loop by adding a series resistance
