
**** 05/20/20 19:24:05 ******* PSpice Lite (March 2016) ******* ID# 10813 ****

 ** Profile: "SCHEMATIC1-lab1"  [ C:\Users\yoyol\Desktop\Facultate\lab1-PSpiceFiles\SCHEMATIC1\lab1.sim ] 


 ****     CIRCUIT DESCRIPTION


******************************************************************************




** Creating circuit file "lab1.cir" 
** WARNING: THIS AUTOMATICALLY GENERATED FILE MAY BE OVERWRITTEN BY SUBSEQUENT SIMULATIONS

*Libraries: 
* Profile Libraries :
* Local Libraries :
* From [PSPICE NETLIST] section of C:\Users\yoyol\AppData\Roaming\SPB_Data\cdssetup\OrCAD_PSpice\17.2.0\PSpice.ini file:
.lib "nomd.lib" 

*Analysis directives: 
.DC LIN V_V3 -2 2 10m 
.OPTIONS ADVCONV
.PROBE64 V(alias(*)) I(alias(*)) W(alias(*)) D(alias(*)) NOISE(alias(*)) 
.INC "..\SCHEMATIC1.net" 



**** INCLUDING SCHEMATIC1.net ****
* source LAB1
X_U1A         0 N01883 N01942 N01925 OUT LM324
V_V1         N01942 0 15V
V_V2         0 N01925 15v
V_V3         IN 0 -1V
R_R1         IN N01883  10k TC=0,0 
R_R2         N01883 OUT  100k TC=0,0 
R_R3         OUT 0  10k TC=0,0 

**** RESUMING lab1.cir ****
.END

**** 05/20/20 19:24:05 ******* PSpice Lite (March 2016) ******* ID# 10813 ****

 ** Profile: "SCHEMATIC1-lab1"  [ C:\Users\yoyol\Desktop\Facultate\lab1-PSpiceFiles\SCHEMATIC1\lab1.sim ] 


 ****     Diode MODEL PARAMETERS


******************************************************************************




               X_U1A.dx        X_U1A.dy        
          IS  800.000000E-18  800.000000E-18 
          RS    1               1.000000E-03 
         CJO                   10.000000E-12 


**** 05/20/20 19:24:05 ******* PSpice Lite (March 2016) ******* ID# 10813 ****

 ** Profile: "SCHEMATIC1-lab1"  [ C:\Users\yoyol\Desktop\Facultate\lab1-PSpiceFiles\SCHEMATIC1\lab1.sim ] 


 ****     BJT MODEL PARAMETERS


******************************************************************************




               X_U1A.qx        
               PNP             
       LEVEL    1            
          IS  800.000000E-18 
          BF  166.7          
          NF    1            
          BR    1            
          NR    1            
         ISS    0            
          RE    0            
          RC    0            
         CJE    0            
         VJE     .75         
         CJC    0            
         VJC     .75         
         MJC     .33         
        XCJC    1            
         CJS    0            
         VJS     .75         
          KF    0            
          AF    1            
          CN    2.2          
           D     .52         


**** 05/20/20 19:24:05 ******* PSpice Lite (March 2016) ******* ID# 10813 ****

 ** Profile: "SCHEMATIC1-lab1"  [ C:\Users\yoyol\Desktop\Facultate\lab1-PSpiceFiles\SCHEMATIC1\lab1.sim ] 


 ****     Current Controlled Switch MODEL PARAMETERS


******************************************************************************




               X_U1A.sw2       X_U1A.sw1       X_U1A.sw3       X_U1A.sw4       
         RON    1               1               1               1            
        ROFF   10.000000E+06   10.000000E+06   10.000000E+06   10.000000E+06 
         ION    0              -1.000000E-06   -1.000000E-06    0            
        IOFF   -1.000000E-06    0               0              -1.000000E-06 



          JOB CONCLUDED

**** 05/20/20 19:24:05 ******* PSpice Lite (March 2016) ******* ID# 10813 ****

 ** Profile: "SCHEMATIC1-lab1"  [ C:\Users\yoyol\Desktop\Facultate\lab1-PSpiceFiles\SCHEMATIC1\lab1.sim ] 


 ****     JOB STATISTICS SUMMARY


******************************************************************************



  Total job time (using Solver 1)   =         .03
